* Copyright © Jakub Ladman All rights reserved.
*
.subckt example_z 1 2
* (Freq, mag, deg)
B1 1 2  I=V(1,2) DB FREQ=
+ (100.000, -2.357, -26.700)
+ (101.654, -2.397, -26.985)
+ (103.335, -2.438, -27.274)
+ (105.044, -2.480, -27.552)
+ (106.781, -2.523, -27.835)
+ (108.547, -2.563, -28.130)
+ (110.342, -2.609, -28.394)
+ (112.167, -2.653, -28.707)
+ (114.022, -2.696, -28.975)
+ (115.908, -2.741, -29.248)
+ (117.825, -2.790, -29.547)
+ (119.774, -2.836, -29.832)
+ (121.754, -2.882, -30.105)
+ (123.768, -2.930, -30.399)
+ (125.815, -2.978, -30.695)
+ (127.896, -3.028, -30.981)
+ (130.011, -3.077, -31.254)
+ (132.161, -3.127, -31.543)
+ (134.347, -3.180, -31.828)
+ (136.568, -3.229, -32.121)
+ (138.827, -3.281, -32.389)
+ (141.123, -3.334, -32.683)
+ (143.457, -3.390, -32.963)
+ (145.829, -3.442, -33.251)
+ (148.241, -3.497, -33.533)
+ (150.693, -3.553, -33.806)
+ (153.185, -3.605, -34.089)
+ (155.719, -3.663, -34.376)
+ (158.294, -3.721, -34.646)
+ (160.912, -3.777, -34.928)
+ (163.573, -3.837, -35.204)
+ (166.278, -3.896, -35.497)
+ (169.028, -3.953, -35.762)
+ (171.823, -4.014, -36.036)
+ (174.665, -4.075, -36.312)
+ (177.554, -4.134, -36.590)
+ (180.490, -4.196, -36.866)
+ (183.475, -4.257, -37.135)
+ (186.510, -4.318, -37.408)
+ (189.594, -4.383, -37.683)
+ (192.730, -4.446, -37.952)
+ (195.917, -4.511, -38.222)
+ (199.157, -4.575, -38.486)
+ (202.451, -4.640, -38.756)
+ (205.799, -4.705, -39.012)
+ (209.203, -4.771, -39.288)
+ (212.662, -4.837, -39.558)
+ (216.179, -4.903, -39.815)
+ (219.755, -4.970, -40.078)
+ (223.389, -5.039, -40.343)
+ (227.084, -5.108, -40.601)
+ (230.839, -5.177, -40.867)
+ (234.657, -5.247, -41.125)
+ (238.538, -5.316, -41.386)
+ (242.483, -5.385, -41.639)
+ (246.493, -5.456, -41.901)
+ (250.569, -5.528, -42.159)
+ (254.713, -5.600, -42.404)
+ (258.926, -5.673, -42.664)
+ (263.208, -5.743, -42.914)
+ (267.561, -5.819, -43.165)
+ (271.986, -5.891, -43.410)
+ (276.484, -5.966, -43.657)
+ (281.057, -6.039, -43.908)
+ (285.705, -6.115, -44.160)
+ (290.430, -6.190, -44.398)
+ (295.233, -6.267, -44.646)
+ (300.116, -6.343, -44.887)
+ (305.079, -6.420, -45.117)
+ (310.125, -6.498, -45.365)
+ (315.253, -6.574, -45.606)
+ (320.467, -6.653, -45.851)
+ (325.767, -6.732, -46.084)
+ (331.155, -6.810, -46.333)
+ (336.631, -6.890, -46.560)
+ (342.199, -6.969, -46.799)
+ (347.858, -7.050, -47.031)
+ (353.611, -7.131, -47.264)
+ (359.459, -7.212, -47.488)
+ (365.404, -7.294, -47.717)
+ (371.447, -7.377, -47.946)
+ (377.590, -7.459, -48.180)
+ (383.835, -7.541, -48.398)
+ (390.183, -7.625, -48.626)
+ (396.636, -7.708, -48.841)
+ (403.195, -7.794, -49.064)
+ (409.864, -7.878, -49.288)
+ (416.642, -7.963, -49.498)
+ (423.532, -8.049, -49.716)
+ (430.537, -8.136, -49.932)
+ (437.657, -8.223, -50.139)
+ (444.895, -8.311, -50.356)
+ (452.253, -8.397, -50.559)
+ (459.733, -8.484, -50.767)
+ (467.336, -8.573, -50.973)
+ (475.065, -8.661, -51.168)
+ (482.921, -8.752, -51.377)
+ (490.908, -8.840, -51.573)
+ (499.027, -8.930, -51.765)
+ (507.280, -9.020, -51.958)
+ (515.669, -9.109, -52.142)
+ (524.198, -9.202, -52.328)
+ (532.867, -9.292, -52.506)
+ (541.679, -9.385, -52.684)
+ (550.638, -9.475, -52.860)
+ (559.744, -9.567, -53.036)
+ (569.002, -9.658, -53.208)
+ (578.412, -9.750, -53.366)
+ (587.978, -9.838, -53.526)
+ (597.702, -9.930, -53.696)
+ (607.587, -10.021, -53.857)
+ (617.635, -10.110, -54.016)
+ (627.850, -10.200, -54.189)
+ (638.233, -10.289, -54.352)
+ (648.789, -10.379, -54.516)
+ (659.518, -10.468, -54.695)
+ (670.426, -10.559, -54.872)
+ (681.513, -10.650, -55.051)
+ (692.784, -10.740, -55.235)
+ (704.242, -10.834, -55.425)
+ (715.889, -10.927, -55.604)
+ (727.728, -11.021, -55.781)
+ (739.764, -11.116, -55.967)
+ (751.998, -11.210, -56.153)
+ (764.435, -11.305, -56.323)
+ (777.077, -11.403, -56.514)
+ (789.928, -11.500, -56.680)
+ (802.992, -11.598, -56.855)
+ (816.273, -11.695, -57.021)
+ (829.772, -11.793, -57.199)
+ (843.495, -11.892, -57.351)
+ (857.445, -11.994, -57.512)
+ (871.626, -12.092, -57.668)
+ (886.041, -12.192, -57.832)
+ (900.694, -12.294, -57.971)
+ (915.590, -12.393, -58.113)
+ (930.733, -12.491, -58.268)
+ (946.125, -12.593, -58.419)
+ (961.772, -12.693, -58.565)
+ (977.678, -12.794, -58.695)
+ (993.848, -12.895, -58.840)
+ (1010.284, -12.997, -58.985)
+ (1026.992, -13.099, -59.118)
+ (1043.977, -13.201, -59.247)
+ (1061.242, -13.303, -59.381)
+ (1078.793, -13.405, -59.510)
+ (1096.635, -13.507, -59.632)
+ (1114.771, -13.609, -59.748)
+ (1133.208, -13.711, -59.883)
+ (1151.949, -13.814, -59.993)
+ (1171.000, -13.917, -60.116)
+ (1190.366, -14.020, -60.241)
+ (1210.053, -14.122, -60.359)
+ (1230.065, -14.225, -60.474)
+ (1250.408, -14.329, -60.597)
+ (1271.087, -14.432, -60.703)
+ (1292.109, -14.535, -60.814)
+ (1313.478, -14.640, -60.922)
+ (1335.201, -14.744, -61.029)
+ (1357.283, -14.848, -61.136)
+ (1379.730, -14.952, -61.239)
+ (1402.548, -15.056, -61.340)
+ (1425.744, -15.161, -61.439)
+ (1449.323, -15.265, -61.540)
+ (1473.292, -15.370, -61.633)
+ (1497.658, -15.474, -61.726)
+ (1522.426, -15.578, -61.830)
+ (1547.605, -15.683, -61.921)
+ (1573.199, -15.788, -62.008)
+ (1599.217, -15.892, -62.102)
+ (1625.665, -15.997, -62.197)
+ (1652.551, -16.102, -62.284)
+ (1679.881, -16.208, -62.368)
+ (1707.663, -16.313, -62.456)
+ (1735.905, -16.419, -62.540)
+ (1764.614, -16.524, -62.627)
+ (1793.797, -16.629, -62.705)
+ (1823.464, -16.735, -62.783)
+ (1853.621, -16.840, -62.866)
+ (1884.276, -16.947, -62.945)
+ (1915.439, -17.052, -63.022)
+ (1947.117, -17.157, -63.095)
+ (1979.318, -17.263, -63.170)
+ (2012.053, -17.369, -63.245)
+ (2045.329, -17.475, -63.319)
+ (2079.155, -17.581, -63.386)
+ (2113.540, -17.686, -63.456)
+ (2148.494, -17.793, -63.532)
+ (2184.027, -17.899, -63.595)
+ (2220.147, -18.005, -63.664)
+ (2256.864, -18.111, -63.731)
+ (2294.188, -18.217, -63.797)
+ (2332.130, -18.324, -63.859)
+ (2370.700, -18.430, -63.924)
+ (2409.907, -18.536, -63.983)
+ (2449.762, -18.642, -64.046)
+ (2490.277, -18.749, -64.111)
+ (2531.462, -18.855, -64.168)
+ (2573.328, -18.963, -64.225)
+ (2615.886, -19.069, -64.286)
+ (2659.148, -19.176, -64.340)
+ (2703.126, -19.282, -64.397)
+ (2747.830, -19.388, -64.448)
+ (2793.275, -19.495, -64.504)
+ (2839.470, -19.602, -64.563)
+ (2886.430, -19.709, -64.611)
+ (2934.167, -19.816, -64.665)
+ (2982.693, -19.922, -64.713)
+ (3032.021, -20.021, -64.755)
+ (3082.165, -20.128, -64.806)
+ (3133.139, -20.235, -64.866)
+ (3184.955, -20.342, -64.912)
+ (3237.629, -20.449, -64.958)
+ (3291.173, -20.555, -65.006)
+ (3345.604, -20.663, -65.049)
+ (3400.934, -20.770, -65.099)
+ (3457.179, -20.878, -65.144)
+ (3514.355, -20.984, -65.191)
+ (3572.476, -21.091, -65.236)
+ (3631.558, -21.198, -65.278)
+ (3691.618, -21.306, -65.318)
+ (3752.671, -21.413, -65.364)
+ (3814.733, -21.520, -65.410)
+ (3877.822, -21.629, -65.457)
+ (3941.954, -21.735, -65.489)
+ (4007.147, -21.842, -65.531)
+ (4073.418, -21.949, -65.573)
+ (4140.786, -22.057, -65.612)
+ (4209.267, -22.165, -65.654)
+ (4278.881, -22.273, -65.693)
+ (4349.646, -22.380, -65.733)
+ (4421.581, -22.488, -65.768)
+ (4494.706, -22.596, -65.804)
+ (4569.041, -22.703, -65.842)
+ (4644.604, -22.811, -65.874)
+ (4721.418, -22.918, -65.916)
+ (4799.502, -23.026, -65.951)
+ (4878.877, -23.135, -65.988)
+ (4959.565, -23.243, -66.017)
+ (5041.587, -23.350, -66.059)
+ (5124.966, -23.458, -66.089)
+ (5209.724, -23.566, -66.122)
+ (5295.884, -23.673, -66.159)
+ (5383.468, -23.782, -66.188)
+ (5472.501, -23.890, -66.219)
+ (5563.006, -23.998, -66.248)
+ (5655.009, -24.107, -66.284)
+ (5748.532, -24.214, -66.309)
+ (5843.603, -24.323, -66.339)
+ (5940.246, -24.432, -66.372)
+ (6038.487, -24.540, -66.395)
+ (6138.353, -24.648, -66.425)
+ (6239.870, -24.756, -66.455)
+ (6343.066, -24.865, -66.483)
+ (6447.970, -24.973, -66.507)
+ (6554.607, -25.082, -66.535)
+ (6663.009, -25.190, -66.562)
+ (6773.203, -25.299, -66.589)
+ (6885.220, -25.407, -66.614)
+ (6999.089, -25.516, -66.640)
+ (7114.842, -25.625, -66.663)
+ (7232.509, -25.734, -66.692)
+ (7352.122, -25.843, -66.714)
+ (7473.713, -25.951, -66.739)
+ (7597.314, -26.060, -66.761)
+ (7722.961, -26.169, -66.780)
+ (7850.685, -26.279, -66.808)
+ (7980.521, -26.388, -66.827)
+ (8112.505, -26.497, -66.849)
+ (8246.671, -26.606, -66.870)
+ (8383.056, -26.716, -66.888)
+ (8521.697, -26.825, -66.910)
+ (8662.631, -26.935, -66.930)
+ (8805.895, -27.044, -66.952)
+ (8951.529, -27.155, -66.969)
+ (9099.571, -27.264, -66.989)
+ (9250.062, -27.374, -67.005)
+ (9403.042, -27.484, -67.021)
+ (9558.551, -27.594, -67.041)
+ (9716.633, -27.704, -67.054)
+ (9877.329, -27.815, -67.068)
+ (10040.682, -27.924, -67.085)
+ (10206.737, -28.035, -67.094)
+ (10375.538, -28.144, -67.094)
+ (10547.131, -28.253, -67.117)
+ (10721.562, -28.363, -67.136)
+ (10898.878, -28.473, -67.151)
+ (11079.126, -28.583, -67.168)
+ (11262.355, -28.694, -67.179)
+ (11448.614, -28.805, -67.195)
+ (11637.954, -28.915, -67.205)
+ (11830.425, -29.026, -67.219)
+ (12026.079, -29.137, -67.228)
+ (12224.969, -29.248, -67.240)
+ (12427.148, -29.359, -67.248)
+ (12632.671, -29.470, -67.258)
+ (12841.593, -29.582, -67.266)
+ (13053.970, -29.693, -67.273)
+ (13269.860, -29.804, -67.281)
+ (13489.319, -29.916, -67.289)
+ (13712.409, -30.028, -67.296)
+ (13939.188, -30.139, -67.296)
+ (14169.717, -30.251, -67.299)
+ (14404.059, -30.363, -67.307)
+ (14642.276, -30.475, -67.313)
+ (14884.434, -30.587, -67.314)
+ (15130.596, -30.699, -67.317)
+ (15380.829, -30.811, -67.318)
+ (15635.200, -30.924, -67.322)
+ (15893.779, -31.036, -67.322)
+ (16156.634, -31.149, -67.322)
+ (16423.836, -31.261, -67.326)
+ (16695.457, -31.375, -67.324)
+ (16971.570, -31.487, -67.323)
+ (17252.249, -31.600, -67.321)
+ (17537.571, -31.714, -67.318)
+ (17827.611, -31.827, -67.318)
+ (18122.448, -31.941, -67.314)
+ (18422.161, -32.054, -67.310)
+ (18726.831, -32.169, -67.307)
+ (19036.539, -32.282, -67.303)
+ (19351.370, -32.396, -67.292)
+ (19671.407, -32.511, -67.290)
+ (19996.737, -32.625, -67.282)
+ (20327.448, -32.740, -67.274)
+ (20663.627, -32.855, -67.263)
+ (21005.367, -32.970, -67.252)
+ (21352.759, -33.085, -67.240)
+ (21705.895, -33.200, -67.232)
+ (22064.872, -33.316, -67.218)
+ (22429.786, -33.432, -67.204)
+ (22800.735, -33.548, -67.189)
+ (23177.818, -33.664, -67.176)
+ (23561.138, -33.780, -67.161)
+ (23950.797, -33.897, -67.143)
+ (24346.901, -34.014, -67.128)
+ (24749.555, -34.132, -67.110)
+ (25158.869, -34.249, -67.089)
+ (25574.952, -34.367, -67.069)
+ (25997.916, -34.485, -67.047)
+ (26427.875, -34.603, -67.027)
+ (26864.946, -34.722, -67.000)
+ (27309.244, -34.841, -66.980)
+ (27760.890, -34.960, -66.953)
+ (28220.006, -35.080, -66.924)
+ (28686.715, -35.199, -66.897)
+ (29161.142, -35.320, -66.866)
+ (29643.415, -35.441, -66.839)
+ (30133.665, -35.561, -66.804)
+ (30632.022, -35.682, -66.772)
+ (31138.621, -35.804, -66.740)
+ (31653.599, -35.926, -66.705)
+ (32177.093, -36.049, -66.666)
+ (32709.245, -36.172, -66.627)
+ (33250.197, -36.295, -66.586)
+ (33800.096, -36.419, -66.545)
+ (34359.090, -36.544, -66.498)
+ (34927.328, -36.668, -66.455)
+ (35504.964, -36.794, -66.406)
+ (36092.153, -36.919, -66.358)
+ (36689.053, -37.046, -66.306)
+ (37295.825, -37.173, -66.254)
+ (37912.631, -37.301, -66.197)
+ (38539.639, -37.428, -66.139)
+ (39177.016, -37.557, -66.081)
+ (39824.934, -37.686, -66.017)
+ (40483.568, -37.816, -65.953)
+ (41153.094, -37.947, -65.887)
+ (41833.693, -38.078, -65.818)
+ (42525.548, -38.210, -65.744)
+ (43228.844, -38.343, -65.669)
+ (43943.773, -38.476, -65.593)
+ (44670.525, -38.610, -65.509)
+ (45409.296, -38.744, -65.428)
+ (46160.285, -38.880, -65.340)
+ (46923.694, -39.017, -65.247)
+ (47699.728, -39.155, -65.153)
+ (48488.597, -39.293, -65.057)
+ (49290.512, -39.432, -64.956)
+ (50105.689, -39.572, -64.851)
+ (50934.348, -39.714, -64.742)
+ (51776.712, -39.856, -64.624)
+ (52633.006, -40.000, -64.508)
+ (53503.463, -40.144, -64.385)
+ (54388.315, -40.289, -64.259)
+ (55287.801, -40.436, -64.120)
+ (56202.163, -40.585, -63.983)
+ (57131.646, -40.734, -63.843)
+ (58076.502, -40.884, -63.693)
+ (59036.984, -41.037, -63.541)
+ (60013.351, -41.190, -63.374)
+ (61005.865, -41.344, -63.206)
+ (62014.794, -41.500, -63.036)
+ (63040.408, -41.659, -62.851)
+ (64082.984, -41.818, -62.662)
+ (65142.803, -41.980, -62.467)
+ (66220.149, -42.142, -62.264)
+ (67315.312, -42.307, -62.046)
+ (68428.588, -42.475, -61.826)
+ (69560.275, -42.643, -61.587)
+ (70710.678, -42.814, -61.350)
+ (71880.107, -42.987, -61.092)
+ (73068.876, -43.162, -60.826)
+ (74277.305, -43.339, -60.549)
+ (75505.720, -43.519, -60.252)
+ (76754.450, -43.701, -59.949)
+ (78023.832, -43.884, -59.633)
+ (79314.208, -44.072, -59.297)
+ (80625.924, -44.262, -58.950)
+ (81959.333, -44.454, -58.578)
+ (83314.794, -44.650, -58.197)
+ (84692.673, -44.848, -57.792)
+ (86093.339, -45.050, -57.372)
+ (87517.170, -45.255, -56.921)
+ (88964.548, -45.463, -56.453)
+ (90435.864, -45.674, -55.957)
+ (91931.512, -45.890, -55.430)
+ (93451.896, -46.109, -54.891)
+ (94997.424, -46.331, -54.307)
+ (96568.512, -46.558, -53.690)
+ (98165.583, -46.789, -53.043)
+ (99789.068, -47.025, -52.359)
+ (101439.401, -47.263, -51.627)
+ (103117.029, -47.507, -50.855)
+ (104822.401, -47.755, -50.037)
+ (106555.977, -48.008, -49.168)
+ (108318.223, -48.265, -48.242)
+ (110109.614, -48.526, -47.254)
+ (111930.631, -48.793, -46.201)
+ (113781.765, -49.064, -45.075)
+ (115663.513, -49.338, -43.882)
+ (117576.381, -49.618, -42.587)
+ (119520.886, -49.900, -41.218)
+ (121497.548, -50.185, -39.741)
+ (123506.902, -50.474, -38.162)
+ (125549.486, -50.765, -36.474)
+ (127625.851, -51.057, -34.663)
+ (129736.556, -51.349, -32.708)
+ (131882.168, -51.637, -30.625)
+ (134063.264, -51.925, -28.375)
+ (136280.432, -52.204, -25.971)
+ (138534.268, -52.479, -23.400)
+ (140825.379, -52.739, -20.654)
+ (143154.380, -52.987, -17.725)
+ (145521.899, -53.216, -14.623)
+ (147928.572, -53.423, -11.364)
+ (150375.047, -53.603, -7.920)
+ (152861.983, -53.754, -4.348)
+ (155390.049, -53.871, -0.648)
+ (157959.924, -53.948, 3.163)
+ (160572.300, -53.987, 7.040)
+ (163227.880, -53.985, 10.946)
+ (165927.379, -53.937, 14.843)
+ (168671.522, -53.852, 18.696)
+ (171461.049, -53.728, 22.469)
+ (174296.710, -53.566, 26.149)
+ (177179.268, -53.371, 29.670)
+ (180109.498, -53.146, 33.056)
+ (183088.188, -52.897, 36.269)
+ (186116.141, -52.628, 39.318)
+ (189194.171, -52.341, 42.184)
+ (192323.106, -52.039, 44.871)
+ (195503.788, -51.731, 47.388)
+ (198737.073, -51.412, 49.741)
+ (202023.831, -51.089, 51.944)
+ (205364.946, -50.761, 53.993)
+ (208761.317, -50.437, 55.902)
+ (212213.858, -50.108, 57.694)
+ (215723.497, -49.781, 59.344)
+ (219291.180, -49.458, 60.881)
+ (222917.866, -49.137, 62.321)
+ (226604.531, -48.820, 63.656)
+ (230352.167, -48.507, 64.910)
+ (234161.782, -48.200, 66.073)
+ (238034.402, -47.896, 67.171)
+ (241971.067, -47.597, 68.196)
+ (245972.838, -47.301, 69.158)
+ (250040.792, -47.012, 70.065)
+ (254176.021, -46.726, 70.912)
+ (258379.641, -46.444, 71.717)
+ (262652.780, -46.166, 72.478)
+ (266996.590, -45.893, 73.184)
+ (271412.239, -45.625, 73.857)
+ (275900.915, -45.360, 74.487)
+ (280463.825, -45.099, 75.088)
+ (285102.198, -44.842, 75.655)
+ (289817.281, -44.589, 76.194)
+ (294610.343, -44.340, 76.705)
+ (299482.674, -44.093, 77.190)
+ (304435.585, -43.850, 77.649)
+ (309470.408, -43.610, 78.086)
+ (314588.498, -43.373, 78.493)
+ (319791.232, -43.140, 78.897)
+ (325080.011, -42.908, 79.267)
+ (330456.256, -42.681, 79.630)
+ (335921.414, -42.456, 79.973)
+ (341476.957, -42.233, 80.297)
+ (347124.379, -42.013, 80.610)
+ (352865.198, -41.795, 80.908)
+ (358700.961, -41.580, 81.187)
+ (364633.237, -41.367, 81.462)
+ (370663.622, -41.156, 81.719)
+ (376793.739, -40.947, 81.966)
+ (383025.237, -40.740, 82.205)
+ (389359.793, -40.534, 82.430)
+ (395799.112, -40.331, 82.648)
+ (402344.925, -40.130, 82.856)
+ (408998.994, -39.929, 83.056)
+ (415763.110, -39.731, 83.250)
+ (422639.093, -39.534, 83.434)
+ (429628.791, -39.339, 83.609)
+ (436734.087, -39.144, 83.779)
+ (443956.892, -38.952, 83.940)
+ (451299.150, -38.760, 84.093)
+ (458762.835, -38.570, 84.243)
+ (466349.956, -38.381, 84.386)
+ (474062.555, -38.193, 84.525)
+ (481902.706, -38.006, 84.656)
+ (489872.520, -37.820, 84.782)
+ (497974.140, -37.636, 84.903)
+ (506209.747, -37.451, 85.021)
+ (514581.555, -37.268, 85.134)
+ (523091.819, -37.085, 85.241)
+ (531742.827, -36.903, 85.347)
+ (540536.908, -36.724, 85.444)
+ (549476.427, -36.543, 85.542)
+ (558563.789, -36.364, 85.634)
+ (567801.441, -36.184, 85.720)
+ (577191.867, -36.006, 85.806)
+ (586737.594, -35.828, 85.887)
+ (596441.190, -35.651, 85.967)
+ (606305.266, -35.475, 86.042)
+ (616332.477, -35.298, 86.114)
+ (626525.520, -35.122, 86.183)
+ (636887.137, -34.947, 86.247)
+ (647420.118, -34.772, 86.311)
+ (658127.295, -34.596, 86.373)
+ (669011.550, -34.421, 86.433)
+ (680075.811, -34.247, 86.486)
+ (691323.055, -34.073, 86.540)
+ (702756.309, -33.899, 86.589)
+ (714378.648, -33.724, 86.637)
+ (726193.200, -33.551, 86.686)
+ (738203.144, -33.377, 86.728)
+ (750411.711, -33.203, 86.771)
+ (762822.186, -33.028, 86.812)
+ (775437.908, -32.854, 86.848)
+ (788262.271, -32.680, 86.885)
+ (801298.727, -32.506, 86.918)
+ (814550.783, -32.331, 86.948)
+ (828022.004, -32.157, 86.978)
+ (841716.015, -31.982, 87.007)
+ (855636.501, -31.806, 87.034)
+ (869787.207, -31.631, 87.058)
+ (884171.940, -31.455, 87.079)
+ (898794.571, -31.279, 87.101)
+ (913659.035, -31.102, 87.122)
+ (928769.330, -30.924, 87.137)
+ (944129.522, -30.747, 87.153)
+ (959743.745, -30.569, 87.167)
+ (975616.200, -30.389, 87.181)
+ (991751.156, -30.210, 87.190)
+ (1008152.956, -30.029, 87.199)
+ (1024826.013, -29.848, 87.210)
+ (1041774.812, -29.666, 87.216)
+ (1059003.915, -29.484, 87.219)
+ (1076517.956, -29.300, 87.226)
+ (1094321.648, -29.115, 87.228)
+ (1112419.782, -28.929, 87.227)
+ (1130817.226, -28.743, 87.226)
+ (1149518.932, -28.554, 87.222)
+ (1168529.930, -28.365, 87.217)
+ (1187855.336, -28.174, 87.211)
+ (1207500.351, -27.982, 87.200)
+ (1227470.259, -27.789, 87.188)
+ (1247770.434, -27.595, 87.175)
+ (1268406.337, -27.398, 87.160)
+ (1289383.522, -27.199, 87.147)
+ (1310707.632, -27.000, 87.126)
+ (1332384.404, -26.798, 87.102)
+ (1354419.673, -26.594, 87.080)
+ (1376819.365, -26.389, 87.054)
+ (1399589.508, -26.181, 87.021)
+ (1422736.229, -25.971, 86.990)
+ (1446265.756, -25.759, 86.959)
+ (1470184.419, -25.543, 86.919)
+ (1494498.654, -25.325, 86.876)
+ (1519215.003, -25.105, 86.840)
+ (1544340.117, -24.881, 86.801)
+ (1569880.756, -24.655, 86.759)
+ (1595843.791, -24.425, 86.712)
+ (1622236.209, -24.191, 86.663)
+ (1649065.110, -23.953, 86.609)
+ (1676337.714, -23.713, 86.558)
+ (1704061.358, -23.467, 86.495)
+ (1732243.501, -23.218, 86.430)
+ (1760891.728, -22.963, 86.363)
+ (1790013.745, -22.704, 86.293)
+ (1819617.388, -22.438, 86.215)
+ (1849710.623, -22.169, 86.126)
+ (1880301.547, -21.892, 86.035)
+ (1911398.390, -21.610, 85.939)
+ (1943009.519, -21.320, 85.827)
+ (1975143.440, -21.023, 85.709)
+ (2007808.800, -20.719, 85.585)
+ (2041014.386, -20.405, 85.472)
+ (2074769.133, -20.081, 85.339)
+ (2109082.124, -19.748, 85.198)
+ (2143962.591, -19.404, 85.054)
+ (2179419.919, -19.049, 84.893)
+ (2215463.648, -18.682, 84.707)
+ (2252103.476, -18.302, 84.518)
+ (2289349.261, -17.907, 84.298)
+ (2327211.026, -17.495, 84.056)
+ (2365698.957, -17.068, 83.789)
+ (2404823.409, -16.620, 83.501)
+ (2444594.911, -16.152, 83.177)
+ (2485024.163, -15.661, 82.799)
+ (2526122.042, -15.144, 82.392)
+ (2567899.607, -14.597, 81.912)
+ (2610368.099, -14.018, 81.380)
+ (2653538.944, -13.401, 80.751)
+ (2697423.758, -12.743, 80.026)
+ (2742034.349, -12.035, 79.182)
+ (2787382.720, -11.269, 78.163)
+ (2833481.072, -10.437, 76.941)
+ (2880341.809, -9.529, 75.421)
+ (2927977.539, -8.525, 73.562)
+ (2976401.080, -7.409, 71.129)
+ (3025625.459, -6.136, 68.031)
+ (3075663.923, -4.671, 63.841)
+ (3126529.933, -3.002, 57.786)
+ (3178237.177, -1.122, 48.708)
+ (3230799.566, 0.834, 34.444)
+ (3284231.245, 2.296, 13.075)
+ (3338546.587, 2.326, -12.546)
+ (3393760.210, 0.901, -34.078)
+ (3449886.967, -1.042, -48.472)
+ (3506941.961, -2.915, -57.699)
+ (3564940.543, -4.586, -63.759)
+ (3623898.318, -6.044, -67.984)
+ (3683831.151, -7.326, -71.047)
+ (3744755.165, -8.458, -73.364)
+ (3806686.755, -9.471, -75.141)
+ (3869642.583, -10.385, -76.564)
+ (3933639.588, -11.218, -77.728)
+ (3998694.990, -11.981, -78.654)
+ (4064826.292, -12.699, -79.553)
+ (4132051.289, -13.366, -80.307)
+ (4200388.067, -13.987, -80.948)
+ (4269855.014, -14.570, -81.497)
+ (4340470.821, -15.118, -81.977)
+ (4412254.488, -15.637, -82.380)
+ (4485225.329, -16.128, -82.745)
+ (4559402.978, -16.595, -83.053)
+ (4634807.393, -17.041, -83.321)
+ (4711458.863, -17.468, -83.550)
+ (4789378.012, -17.877, -83.745)
+ (4868585.806, -18.269, -83.892)
+ (4949103.555, -18.646, -83.998)
+ (5030952.925, -19.011, -84.083)
+ (5114155.937, -19.367, -84.145)
+ (5198734.980, -19.708, -84.151)
+ (5284712.809, -20.030, -84.101)
+ (5372112.559, -20.330, -84.018)
+ (5460957.745, -20.605, -83.929)
+ (5551272.272, -20.852, -83.890)
+ (5643080.441, -21.078, -83.989)
+ (5736406.954, -21.299, -84.260)
+ (5831276.922, -21.531, -84.651)
+ (5927715.870, -21.776, -85.073)
+ (6025749.746, -22.035, -85.459)
+ (6125404.929, -22.303, -85.803)
+ (6226708.231, -22.570, -86.089)
+ (6329686.909, -22.832, -86.321)
+ (6434368.672, -23.089, -86.512)
+ (6540781.684, -23.340, -86.674)
+ (6648954.579, -23.585, -86.810)
+ (6758916.461, -23.824, -86.937)
+ (6870696.917, -24.057, -87.051)
+ (6984326.023, -24.285, -87.150)
+ (7099834.352, -24.513, -87.257)
+ (7217252.983, -24.738, -87.363)
+ (7336613.510, -24.959, -87.456)
+ (7457948.047, -25.175, -87.547)
+ (7581289.242, -25.387, -87.649)
+ (7706670.281, -25.596, -87.752)
+ (7834124.899, -25.804, -87.849)
+ (7963687.390, -26.011, -87.960)
+ (8095392.614, -26.220, -88.039)
+ (8229276.009, -26.426, -88.116)
+ (8365373.596, -26.630, -88.185)
+ (8503721.996, -26.830, -88.247)
+ (8644358.431, -27.029, -88.315)
+ (8787320.744, -27.227, -88.368)
+ (8932647.398, -27.422, -88.403)
+ (9080377.498, -27.616, -88.407)
+ (9230550.790, -27.809, -88.421)
+ (9383207.681, -27.996, -88.422)
+ (9538389.246, -28.181, -88.410)
+ (9696137.237, -28.362, -88.448)
+ (9856494.100, -28.542, -88.442)
+ (10019502.981, -28.721, -88.449)
+ (10185207.738, -28.900, -88.463)
+ (10353652.957, -29.080, -88.485)
+ (10524883.960, -29.256, -88.504)
+ (10698946.820, -29.430, -88.518)
+ (10875888.370, -29.604, -88.520)
+ (11055756.218, -29.775, -88.521)
+ (11238598.760, -29.946, -88.513)
+ (11424465.193, -30.114, -88.496)
+ (11613405.526, -30.281, -88.496)
+ (11805470.597, -30.443, -88.513)
+ (12000712.081, -30.607, -88.497)
+ (12199182.513, -30.772, -88.505)
+ (12400935.292, -30.933, -88.514)
+ (12606024.704, -31.093, -88.526)
+ (12814505.930, -31.250, -88.546)
+ (13026435.064, -31.407, -88.566)
+ (13241869.129, -31.563, -88.586)
+ (13460866.091, -31.716, -88.622)
+ (13683484.873, -31.872, -88.650)
+ (13909785.373, -32.022, -88.698)
+ (14139828.481, -32.174, -88.744)
+ (14373676.093, -32.327, -88.799)
+ (14611391.129, -32.480, -88.883)
+ (14853037.548, -32.639, -88.946)
+ (15098680.369, -32.804, -89.011)
+ (15348385.686, -32.968, -88.997)
+ (15602220.684, -33.123, -88.979)
+ (15860253.662, -33.274, -88.984)
+ (16122554.046, -33.426, -89.013)
+ (16389192.412, -33.581, -89.020)
+ (16660240.503, -33.734, -89.028)
+ (16935771.246, -33.884, -89.014)
+ (17215858.778, -34.033, -89.005)
+ (17500578.460, -34.181, -89.009)
+ (17790006.899, -34.327, -89.005)
+ (18084221.969, -34.471, -89.008)
+ (18383302.833, -34.614, -89.017)
+ (18687329.963, -34.756, -89.040)
+ (18996385.160, -34.895, -89.072)
+ (19310551.581, -35.035, -89.096)
+ (19629913.756, -35.171, -89.148)
+ (19954557.613, -35.304, -89.224)
+ (20284570.502, -35.443, -89.281)
+ (20620041.217, -35.581, -89.374)
+ (20961060.021, -35.725, -89.450)
+ (21307718.669, -35.870, -89.457)
+ (21660110.435, -36.008, -89.427)
+ (22018330.134, -36.135, -89.416)
+ (22382474.149, -36.257, -89.415)
+ (22752640.459, -36.372, -89.464)
+ (23128928.661, -36.486, -89.518)
+ (23511440.000, -36.590, -89.613)
+ (23900277.397, -36.700, -89.699)
+ (24295545.473, -36.806, -89.786)
+ (24697350.579, -36.886, -90.031)
+ (25105800.828, -36.984, -90.278)
+ (25521006.117, -37.067, -90.707)
+ (25943078.163, -37.165, -91.410)
+ (26372130.529, -37.313, -92.140)
+ (26808278.659, -37.454, -92.754)
+ (27251639.903, -37.611, -93.205)
+ (27702333.553, -37.752, -94.247)
+ (28160480.875, -38.137, -96.397)
+ (28626205.138, -38.310, -96.601)
+ (29099631.653, -38.846, -96.727)
+ (29580887.799, -39.127, -96.093)
+ (30070103.067, -39.265, -95.489)
+ (30567409.084, -39.323, -95.417)
+ (31072939.659, -39.396, -95.711)
+ (31586830.810, -39.464, -96.057)
+ (32109220.807, -39.598, -96.860)
+ (32640250.205, -39.797, -97.481)
+ (33180061.885, -39.958, -97.835)
+ (33728801.090, -40.158, -98.806)
+ (34286615.465, -40.469, -99.956)
+ (34853655.097, -40.785, -100.093)
+ (35430072.557, -41.164, -99.861)
+ (36016022.936, -41.427, -99.380)
+ (36611663.892, -41.501, -98.493)
+ (37217155.690, -41.579, -98.708)
+ (37832661.245, -41.668, -99.197)
+ (38458346.168, -41.865, -99.485)
+ (39094378.806, -41.981, -99.691)
+ (39740930.292, -42.050, -99.965)
+ (40398174.591, -42.184, -99.976)
+ (41066288.540, -42.177, -100.481)
+ (41745451.906, -42.149, -101.435)
+ (42435847.426, -42.184, -102.683)
+ (43137660.860, -42.243, -104.519)
+ (43851081.040, -42.347, -107.035)
+ (44576299.921, -42.518, -110.364)
+ (45313512.632, -43.078, -113.481)
+ (46062917.529, -43.430, -115.388)
+ (46824716.251, -44.011, -118.677)
+ (47599113.769, -44.651, -119.427)
+ (48386318.444, -45.003, -120.096)
+ (49186542.084, -45.273, -122.380)
+ (50000000.000, -45.484, -129.184)
.ends example_z
