* Copyright © Jakub Ladman All rights reserved.
*
.subckt MODELNAME 1 2 3 4
* (Freq, mag, deg)
B1 1 2  V=V(3,4) DB FREQ=
MODELDEF
.ends MODELNAME
